*HEADING
** Copyright 2024 Arnaud Duval
** TODO: complete case description
*Part, name=Ariane
*USER ELEMENT, NODES=6, TYPE=U3, COORDINATES=3,  INTEGRATION=6, TENSOR=PSTRESS
1,2,3
*USER ELEMENT, NODES=2, TYPE=U00, COORDINATES=3, INTEGRATION=4, TENSOR=NONE
1, 2, 3
*USER ELEMENT, NODES=1, TYPE=U4, COORDINATES=3, INTEGRATION=4, TENSOR=NONE
1, 2, 3
*USER ELEMENT, NODES=12, TYPE=U0, COORDINATES=3, INTEGRATION=12, TENSOR=THREED
1, 2, 3
*USER ELEMENT, NODES=4, TYPE=U30, COORDINATES=3, INTEGRATION=4, TENSOR=NONE
1, 2, 3
*Node,nset=AllNodes
    1, 318.0,    0.0,    0.0
    2, 318.0,    318.0,  0.0
    3, -318.0,   318.0,  0.0
    4, -318.0,   0.0,    0.0
    5, 318.0,    0.0,    600.0
    6, 318.0,    318.0,  600.0
    7, -318.0,   318.0,  600.0
    8, -318.0,   0.0,    600.0

    9, -318.0,   0.0,    0.0
    10, -318.0,  -318.0, 0.0
    11, 318.0,   -318.0, 0.0
    12, 318.0,   0.0,    0.0
    13, -318.0,  0.0,    600.0
    14, -318.0,  -318.0, 600.0
    15,  318.0,  -318.0, 600.0
    16, 318.0,   0.0,    600.0

    17, 0.0, 0.0, 0.0
    18, 0.0, 1.0, 0.0
    19, 1.0, 0.0, 0.0
    20, 1.0, 1.0, 0.0
    21, 0.0, 0.0, 0.0
    22, 0.0, 1.0, 0.0
    23, 1.0, 0.0, 0.0
    24, 1.0, 1.0, 0.0

    25, 1.0, 0.0, 0.0
    26, 1.0, 1.0, 0.0
    27, 0.0, 0.0, 0.0
    28, 0.0, 1.0, 0.0
    29, 1.0, 0.0, 0.0
    30, 1.0, 1.0, 0.0
    31, 0.0, 0.0, 0.0
    32, 0.0, 1.0, 0.0

    33, 0.0, 0.0, 0.0
    34, 0.0, 0.0, 0.0
    35, 0.0, 0.0, 0.0
    36, 0.0, 0.0, 0.0

    37, 318.0,    0.0,    0.0
    38, 318.0,    318.0,  0.0
    39, -318.0,   318.0,  0.0
    40, -318.0,   0.0,    0.0
    41, 318.0,    0.0,    600.0
    42, 318.0,    318.0,  600.0
    43, -318.0,   318.0,  600.0
    44, -318.0,   0.0,    600.0
    45, 250.0,    0.0,    0.0
    46, 250.0,    250.0,  0.0
    47, -250.0,   250.0,  0.0
    48, -250.0,   0.0,    0.0
    49, 250.0,    0.0,    600.0
    50, 250.0,    250.0,  600.0
    51, -250.0,   250.0,  600.0
    52, -250.0,   0.0,    600.0

    53, -318.0,   0.0,    0.0
    54, -318.0,  -318.0, 0.0
    55, 318.0,   -318.0, 0.0
    56, 318.0,   0.0,    0.0
    57, -318.0,  0.0,    600.0
    58, -318.0,  -318.0, 600.0
    59,  318.0,  -318.0, 600.0
    60, 318.0,   0.0,    600.0
    61, -250.0,   0.0,    0.0
    62, -250.0,  -250.0, 0.0
    63, 250.0,   -250.0, 0.0
    64, 250.0,   0.0,    0.0
    65, -250.0,  0.0,    600.0
    66, -250.0,  -250.0, 600.0
    67,  250.0,  -250.0, 600.0
    68, 250.0,   0.0,    600.0

69, 0.1, 0.4, 0.5
70, 0.9, 0.6, 0.5
71, 0.1, 0.4, 1.0
72, 0.9, 0.6, 1.0
73, 0.1, 0.4, 0.5
74, 0.9, 0.6, 0.5
75, 0.1, 0.4, 1.0
76, 0.9, 0.6, 1.0
77, 0.1, 0.4, 0.0
78, 0.9, 0.6, 0.0
79, 0.0, 1.0, 0.0
80, 1.0, 1.0, 0.0
81, 0.1, 0.4, 0.0
82, 0.9, 0.6, 0.0
83, 0.0, 1.0, 0.0
84, 1.0, 1.0, 0.0
85, 0.1, 0.4, 0.0
86, 0.9, 0.6, 0.0
87, 0.0, 1.0, 0.0
88, 1.0, 1.0, 0.0
** ... 204 like lines cut


*Element, type=U3, elset=ShellElts
1, 7, 6, 5, 3, 2, 1
2, 8, 7, 6, 4, 3, 2
3, 15, 14, 13, 11, 10, 9
4, 16, 15, 14, 12, 11, 10
*Element, type=U00, elset=CurveElts
5, 18, 17
6, 20, 19
7, 22, 21
8, 24, 23
9, 26, 25
10, 28, 27
11, 30, 29
12, 32, 31
23, 78, 77
24, 80, 79
25, 82, 81
26, 84, 83
27, 86, 85
28, 88, 87
29, 90, 89
30, 92, 91
37, 106, 105
38, 108, 107
39, 110, 109
40, 112, 111
** ... 52 like lines cut
*Element, type=U4, elset=LagrangeElts
13, 33
14, 34
15, 35
16, 36
31, 93
32, 94
33, 95
34, 96
45, 121
46, 122
47, 123
48, 124
59, 149
60, 150
61, 151
62, 152
73, 177
74, 178
75, 179
76, 180
** ... 16 like lines cut
*ELEMENT, type=U0, elset=HullElts
17, 43, 42, 41, 39, 38, 37, 51, 50, 49, 47, 46, 45
18, 44, 43, 42, 40, 39, 38, 52, 51, 50, 48, 47, 46
19, 59, 58, 57, 55, 54, 53, 67, 66, 65, 63, 62, 61
20, 60, 59, 58, 56, 55, 54, 68, 67, 66, 64, 63, 62
*Element, type=U30, elset=EmbeddedElts
21, 72, 71, 70, 69
22, 76, 75, 74, 73
35, 100, 99, 98, 97
36, 104, 103, 102, 101
49, 128, 127, 126, 125
50, 132, 131, 130, 129
63, 156, 155, 154, 153
64, 160, 159, 158, 157
77, 184, 183, 182, 181
78, 188, 187, 186, 185
91, 212, 211, 210, 209
92, 216, 215, 214, 213
105, 240, 239, 238, 237
106, 244, 243, 242, 241
119, 268, 267, 266, 265
120, 272, 271, 270, 269
*ELSET,ELSET=EltPatch1
1, 2
*ELSET,ELSET=EltPatch2
3, 4
*ELSET,ELSET=EltPatch3
5
*ELSET,ELSET=EltPatch4
6
*ELSET,ELSET=EltPatch5
7
*ELSET,ELSET=EltPatch6
8
*ELSET,ELSET=EltPatch7
9
*ELSET,ELSET=EltPatch8
10
*ELSET,ELSET=EltPatch9
11
*ELSET,ELSET=EltPatch10
12
*ELSET,ELSET=EltPatch11
13
*ELSET,ELSET=EltPatch12
14
*ELSET,ELSET=EltPatch13
15
*ELSET,ELSET=EltPatch14
16
*ELSET,ELSET=EltPatch15
17, 18
*ELSET,ELSET=EltPatch16
19, 20
*ELSET,ELSET=EltPatch17
21
*ELSET,ELSET=EltPatch18
22
*ELSET,ELSET=EltPatch19
23
*ELSET,ELSET=EltPatch20
** ... 217 like lines cut
*NSET,NSET=CPonTopEdgeP1
5, 6, 7, 8
*NSET,NSET=CPonTopEdgeP2
13, 14, 15, 16
*NSET,NSET=CPcurveP3
17, 18
*NSET,NSET=CPcurveP4
19, 20
*NSET,NSET=CPcurveP5
21, 22
*NSET,NSET=CPcurveP6
23, 24
*NSET,NSET=CPcurveP7
25, 26
*NSET,NSET=CPcurveP8
27, 28
*NSET,NSET=CPcurveP9
29, 30
*NSET,NSET=CPcurveP10
31, 32
*NSET,NSET=CPlgrgeP11
33
*NSET,NSET=CPlgrgeP12
34
*NSET,NSET=CPlgrgeP13
35
*NSET,NSET=CPlgrgeP14
36
*NSET,NSET=CPhullP15
37, 38, 39, 40, 41, 42, 43, 44, 45, 46, 47, 48, 49, 50, 51, 52
*NSET,NSET=CPhullP16
53, 54, 55, 56, 57, 58, 59, 60, 61, 62, 63, 64, 65, 66, 67, 68
*NSET,NSET=CPcurveP19
78, 77
*NSET,NSET=CPcurveP20
80, 79
*NSET,NSET=CPcurveP21
82, 81
*NSET,NSET=CPcurveP22
84, 83
*NSET,NSET=CPcurveP23
86, 85
*NSET,NSET=CPcurveP24
88, 87
*NSET,NSET=CPcurveP25
90, 89
*NSET,NSET=CPcurveP26
92, 91
*NSET,NSET=CPlgrgeP27
93
*NSET,NSET=CPlgrgeP28
94
*NSET,NSET=CPlgrgeP29
95
*NSET,NSET=CPlgrgeP30
96
*NSET,NSET=CPcurveP33
106, 105
*NSET,NSET=CPcurveP34
108, 107
*NSET,NSET=CPcurveP35
110, 109
*NSET,NSET=CPcurveP36
112, 111
*NSET,NSET=CPcurveP37
114, 113
*NSET,NSET=CPcurveP38
116, 115
*NSET,NSET=CPcurveP39
118, 117
*NSET,NSET=CPcurveP40
120, 119
*NSET,NSET=CPlgrgeP41
121
*NSET,NSET=CPlgrgeP42
122
*NSET,NSET=CPlgrgeP43
123
*NSET,NSET=CPlgrgeP44
124
*NSET,NSET=CPcurveP47
134, 133
*NSET,NSET=CPcurveP48
136, 135
*NSET,NSET=CPcurveP49
138, 137
*NSET,NSET=CPcurveP50
140, 139
*NSET,NSET=CPcurveP51
142, 141
*NSET,NSET=CPcurveP52
144, 143
*NSET,NSET=CPcurveP53
146, 145
*NSET,NSET=CPcurveP54
148, 147
*NSET,NSET=CPlgrgeP55
149
*NSET,NSET=CPlgrgeP56
150
*NSET,NSET=CPlgrgeP57
151
*NSET,NSET=CPlgrgeP58
152
*NSET,NSET=CPcurveP61
162, 161
*NSET,NSET=CPcurveP62
164, 163
*NSET,NSET=CPcurveP63
166, 165
*NSET,NSET=CPcurveP64
168, 167
*NSET,NSET=CPcurveP65
170, 169
*NSET,NSET=CPcurveP66
172, 171
*NSET,NSET=CPcurveP67
174, 173
*NSET,NSET=CPcurveP68
176, 175
*NSET,NSET=CPlgrgeP69
177
*NSET,NSET=CPlgrgeP70
178
*NSET,NSET=CPlgrgeP71
179
*NSET,NSET=CPlgrgeP72
180
*NSET,NSET=CPcurveP75
190, 189
*NSET,NSET=CPcurveP76
192, 191
*NSET,NSET=CPcurveP77
194, 193
*NSET,NSET=CPcurveP78
196, 195
*NSET,NSET=CPcurveP79
198, 197
*NSET,NSET=CPcurveP80
200, 199
*NSET,NSET=CPcurveP81
202, 201
*NSET,NSET=CPcurveP82
204, 203
*NSET,NSET=CPlgrgeP83
205
*NSET,NSET=CPlgrgeP84
206
*NSET,NSET=CPlgrgeP85
207
*NSET,NSET=CPlgrgeP86
208
*NSET,NSET=CPcurveP89
218, 217
*NSET,NSET=CPcurveP90
220, 219
*NSET,NSET=CPcurveP91
222, 221
*NSET,NSET=CPcurveP92
224, 223
*NSET,NSET=CPcurveP93
226, 225
*NSET,NSET=CPcurveP94
228, 227
*NSET,NSET=CPcurveP95
230, 229
*NSET,NSET=CPcurveP96
232, 231
*NSET,NSET=CPlgrgeP97
233
*NSET,NSET=CPlgrgeP98
234
*NSET,NSET=CPlgrgeP99
235
*NSET,NSET=CPlgrgeP100
236
*NSET,NSET=CPcurveP103
246, 245
*NSET,NSET=CPcurveP104
248, 247
*NSET,NSET=CPcurveP105
250, 249
*NSET,NSET=CPcurveP106
252, 251
*NSET,NSET=CPcurveP107
254, 253
*NSET,NSET=CPcurveP108
256, 255
*NSET,NSET=CPcurveP109
258, 257
*NSET,NSET=CPcurveP110
260, 259
*NSET,NSET=CPlgrgeP111
261
*NSET,NSET=CPlgrgeP112
262
*NSET,NSET=CPlgrgeP113
263
*NSET,NSET=CPlgrgeP114
264
*NSET,NSET=CPcurveP117
274, 273
*NSET,NSET=CPcurveP118
276, 275
*NSET,NSET=CPcurveP119
278, 277
*NSET,NSET=CPcurveP120
280, 279
*NSET,NSET=CPcurveP121
282, 281
*NSET,NSET=CPcurveP122
284, 283
*NSET,NSET=CPcurveP123
286, 285
*NSET,NSET=CPcurveP124
288, 287
*NSET,NSET=CPlgrgeP125
289
*NSET,NSET=CPlgrgeP126
290
*NSET,NSET=CPlgrgeP127
291
*NSET,NSET=CPlgrgeP128
292
*UEL PROPERTY, ELSET=EltPatch1, MATERIAL=Aluminium
1, 1.7
*UEL PROPERTY, ELSET=EltPatch2, MATERIAL=Aluminium
2, 1.7
*UEL PROPERTY, ELSET=EltPatch3, MATERIAL=Void
3, 1, 11, 0
*UEL PROPERTY, ELSET=EltPatch4, MATERIAL=Void
4, 2, 11, 1
*UEL PROPERTY, ELSET=EltPatch5, MATERIAL=Void
5, 1, 12, 0
*UEL PROPERTY, ELSET=EltPatch6, MATERIAL=Void
6, 2, 12, 1
*UEL PROPERTY, ELSET=EltPatch7, MATERIAL=Void
7, 1, 13, 0
*UEL PROPERTY, ELSET=EltPatch8, MATERIAL=Void
8, 2, 13, 1
*UEL PROPERTY, ELSET=EltPatch9, MATERIAL=Void
9, 1, 14, 0
*UEL PROPERTY, ELSET=EltPatch10, MATERIAL=Void
10, 2, 14, 1
*UEL PROPERTY, ELSET=EltPatch11, MATERIAL=Void
11, 0
*UEL PROPERTY, ELSET=EltPatch12, MATERIAL=Void
12, 1
*UEL PROPERTY, ELSET=EltPatch13, MATERIAL=Void
13, 0
*UEL PROPERTY, ELSET=EltPatch14, MATERIAL=Void
14, 1
*UEL PROPERTY, ELSET=EltPatch15, MATERIAL=Void
15
*UEL PROPERTY, ELSET=EltPatch16, MATERIAL=Void
16
*UEL PROPERTY, ELSET=EltPatch17, MATERIAL=Aluminium
17, 15, 1.7
*UEL PROPERTY, ELSET=EltPatch18, MATERIAL=Aluminium
18, 16, 1.7
*UEL PROPERTY, ELSET=EltPatch19, MATERIAL=Void
19, 1, 27, 0
*UEL PROPERTY, ELSET=EltPatch20, MATERIAL=Void
20, 17, 27, 1
*UEL PROPERTY, ELSET=EltPatch21, MATERIAL=Void
21, 1, 28, 0
*UEL PROPERTY, ELSET=EltPatch22, MATERIAL=Void
22, 17, 28, 1
*UEL PROPERTY, ELSET=EltPatch23, MATERIAL=Void
23, 2, 29, 0
*UEL PROPERTY, ELSET=EltPatch24, MATERIAL=Void
24, 18, 29, 1
*UEL PROPERTY, ELSET=EltPatch25, MATERIAL=Void
23, 2, 30, 0
*UEL PROPERTY, ELSET=EltPatch26, MATERIAL=Void
24, 18, 30, 1
*UEL PROPERTY, ELSET=EltPatch27, MATERIAL=Void
27, 0
*UEL PROPERTY, ELSET=EltPatch28, MATERIAL=Void
28, 1
*UEL PROPERTY, ELSET=EltPatch29, MATERIAL=Void
29, 0
*UEL PROPERTY, ELSET=EltPatch30, MATERIAL=Void
30, 1
*UEL PROPERTY, ELSET=EltPatch31, MATERIAL=Aluminium
31, 15, 1.7
*UEL PROPERTY, ELSET=EltPatch32, MATERIAL=Aluminium
32, 16, 1.7
*UEL PROPERTY, ELSET=EltPatch33, MATERIAL=Void
33, 1, 41, 0
*UEL PROPERTY, ELSET=EltPatch34, MATERIAL=Void
34, 31, 41, 1
*UEL PROPERTY, ELSET=EltPatch35, MATERIAL=Void
35, 1, 42, 0
*UEL PROPERTY, ELSET=EltPatch36, MATERIAL=Void
36, 31, 42, 1
*UEL PROPERTY, ELSET=EltPatch37, MATERIAL=Void
37, 2, 43, 0
*UEL PROPERTY, ELSET=EltPatch38, MATERIAL=Void
38, 32, 43, 1
*UEL PROPERTY, ELSET=EltPatch39, MATERIAL=Void
37, 2, 44, 0
*UEL PROPERTY, ELSET=EltPatch40, MATERIAL=Void
38, 32, 44, 1
*UEL PROPERTY, ELSET=EltPatch41, MATERIAL=Void
41, 0
*UEL PROPERTY, ELSET=EltPatch42, MATERIAL=Void
42, 1
*UEL PROPERTY, ELSET=EltPatch43, MATERIAL=Void
43, 0
*UEL PROPERTY, ELSET=EltPatch44, MATERIAL=Void
44, 1
*UEL PROPERTY, ELSET=EltPatch45, MATERIAL=Aluminium
45, 15, 1.7
*UEL PROPERTY, ELSET=EltPatch46, MATERIAL=Aluminium
46, 16, 1.7
*UEL PROPERTY, ELSET=EltPatch47, MATERIAL=Void
47, 1, 55, 0
*UEL PROPERTY, ELSET=EltPatch48, MATERIAL=Void
48, 45, 55, 1
*UEL PROPERTY, ELSET=EltPatch49, MATERIAL=Void
49, 1, 56, 0
*UEL PROPERTY, ELSET=EltPatch50, MATERIAL=Void
50, 45, 56, 1
*UEL PROPERTY, ELSET=EltPatch51, MATERIAL=Void
51, 2, 57, 0
*UEL PROPERTY, ELSET=EltPatch52, MATERIAL=Void
52, 46, 57, 1
*UEL PROPERTY, ELSET=EltPatch53, MATERIAL=Void
51, 2, 58, 0
*UEL PROPERTY, ELSET=EltPatch54, MATERIAL=Void
52, 46, 58, 1
*UEL PROPERTY, ELSET=EltPatch55, MATERIAL=Void
55, 0
*UEL PROPERTY, ELSET=EltPatch56, MATERIAL=Void
56, 1
*UEL PROPERTY, ELSET=EltPatch57, MATERIAL=Void
57, 0
*UEL PROPERTY, ELSET=EltPatch58, MATERIAL=Void
58, 1
*UEL PROPERTY, ELSET=EltPatch59, MATERIAL=Aluminium
59, 15, 1.7
*UEL PROPERTY, ELSET=EltPatch60, MATERIAL=Aluminium
60, 16, 1.7
*UEL PROPERTY, ELSET=EltPatch61, MATERIAL=Void
61, 1, 69, 0
*UEL PROPERTY, ELSET=EltPatch62, MATERIAL=Void
62, 59, 69, 1
*UEL PROPERTY, ELSET=EltPatch63, MATERIAL=Void
63, 1, 70, 0
*UEL PROPERTY, ELSET=EltPatch64, MATERIAL=Void
64, 59, 70, 1
*UEL PROPERTY, ELSET=EltPatch65, MATERIAL=Void
65, 2, 71, 0
*UEL PROPERTY, ELSET=EltPatch66, MATERIAL=Void
66, 60, 71, 1
*UEL PROPERTY, ELSET=EltPatch67, MATERIAL=Void
65, 2, 72, 0
*UEL PROPERTY, ELSET=EltPatch68, MATERIAL=Void
66, 60, 72, 1
*UEL PROPERTY, ELSET=EltPatch69, MATERIAL=Void
69, 0
*UEL PROPERTY, ELSET=EltPatch70, MATERIAL=Void
70, 1
*UEL PROPERTY, ELSET=EltPatch71, MATERIAL=Void
71, 0
*UEL PROPERTY, ELSET=EltPatch72, MATERIAL=Void
72, 1
*UEL PROPERTY, ELSET=EltPatch73, MATERIAL=Aluminium
73, 15, 1.7
*UEL PROPERTY, ELSET=EltPatch74, MATERIAL=Aluminium
74, 16, 1.7
*UEL PROPERTY, ELSET=EltPatch75, MATERIAL=Void
75, 1, 83, 0
*UEL PROPERTY, ELSET=EltPatch76, MATERIAL=Void
76, 73, 83, 1
*UEL PROPERTY, ELSET=EltPatch77, MATERIAL=Void
77, 1, 84, 0
*UEL PROPERTY, ELSET=EltPatch78, MATERIAL=Void
78, 73, 84, 1
*UEL PROPERTY, ELSET=EltPatch79, MATERIAL=Void
79, 2, 85, 0
*UEL PROPERTY, ELSET=EltPatch80, MATERIAL=Void
80, 74, 85, 1
*UEL PROPERTY, ELSET=EltPatch81, MATERIAL=Void
79, 2, 86, 0
*UEL PROPERTY, ELSET=EltPatch82, MATERIAL=Void
80, 74, 86, 1
*UEL PROPERTY, ELSET=EltPatch83, MATERIAL=Void
83, 0
*UEL PROPERTY, ELSET=EltPatch84, MATERIAL=Void
84, 1
*UEL PROPERTY, ELSET=EltPatch85, MATERIAL=Void
85, 0
*UEL PROPERTY, ELSET=EltPatch86, MATERIAL=Void
86, 1
*UEL PROPERTY, ELSET=EltPatch87, MATERIAL=Aluminium
87, 15, 1.7
*UEL PROPERTY, ELSET=EltPatch88, MATERIAL=Aluminium
88, 16, 1.7
*UEL PROPERTY, ELSET=EltPatch89, MATERIAL=Void
89, 1, 97, 0
*UEL PROPERTY, ELSET=EltPatch90, MATERIAL=Void
90, 87, 97, 1
*UEL PROPERTY, ELSET=EltPatch91, MATERIAL=Void
91, 1, 98, 0
*UEL PROPERTY, ELSET=EltPatch92, MATERIAL=Void
92, 87, 98, 1
*UEL PROPERTY, ELSET=EltPatch93, MATERIAL=Void
93, 2, 99, 0
*UEL PROPERTY, ELSET=EltPatch94, MATERIAL=Void
94, 88, 99, 1
*UEL PROPERTY, ELSET=EltPatch95, MATERIAL=Void
93, 2, 100, 0
*UEL PROPERTY, ELSET=EltPatch96, MATERIAL=Void
94, 88, 100, 1
*UEL PROPERTY, ELSET=EltPatch97, MATERIAL=Void
97, 0
*UEL PROPERTY, ELSET=EltPatch98, MATERIAL=Void
98, 1
*UEL PROPERTY, ELSET=EltPatch99, MATERIAL=Void
99, 0
*UEL PROPERTY, ELSET=EltPatch100, MATERIAL=Void
100, 1
*UEL PROPERTY, ELSET=EltPatch101, MATERIAL=Aluminium
101, 15, 1.7
*UEL PROPERTY, ELSET=EltPatch102, MATERIAL=Aluminium
102, 16, 1.7
*UEL PROPERTY, ELSET=EltPatch103, MATERIAL=Void
103, 1, 111, 0
*UEL PROPERTY, ELSET=EltPatch104, MATERIAL=Void
104, 101, 111, 1
*UEL PROPERTY, ELSET=EltPatch105, MATERIAL=Void
105, 1, 112, 0
*UEL PROPERTY, ELSET=EltPatch106, MATERIAL=Void
106, 101, 112, 1
*UEL PROPERTY, ELSET=EltPatch107, MATERIAL=Void
107, 2, 113, 0
*UEL PROPERTY, ELSET=EltPatch108, MATERIAL=Void
108, 102, 113, 1
*UEL PROPERTY, ELSET=EltPatch109, MATERIAL=Void
107, 2, 114, 0
*UEL PROPERTY, ELSET=EltPatch110, MATERIAL=Void
108, 102, 114, 1
*UEL PROPERTY, ELSET=EltPatch111, MATERIAL=Void
111, 0
*UEL PROPERTY, ELSET=EltPatch112, MATERIAL=Void
112, 1
*UEL PROPERTY, ELSET=EltPatch113, MATERIAL=Void
113, 0
*UEL PROPERTY, ELSET=EltPatch114, MATERIAL=Void
114, 1
*UEL PROPERTY, ELSET=EltPatch115, MATERIAL=Aluminium
115, 15, 1.7
*UEL PROPERTY, ELSET=EltPatch116, MATERIAL=Aluminium
116, 16, 1.7
*UEL PROPERTY, ELSET=EltPatch117, MATERIAL=Void
117, 1, 125, 0
*UEL PROPERTY, ELSET=EltPatch118, MATERIAL=Void
118, 115, 125, 1
*UEL PROPERTY, ELSET=EltPatch119, MATERIAL=Void
119, 1, 126, 0
*UEL PROPERTY, ELSET=EltPatch120, MATERIAL=Void
120, 115, 126, 1
*UEL PROPERTY, ELSET=EltPatch121, MATERIAL=Void
121, 2, 127, 0
*UEL PROPERTY, ELSET=EltPatch122, MATERIAL=Void
122, 116, 127, 1
*UEL PROPERTY, ELSET=EltPatch123, MATERIAL=Void
121, 2, 128, 0
*UEL PROPERTY, ELSET=EltPatch124, MATERIAL=Void
122, 116, 128, 1
*UEL PROPERTY, ELSET=EltPatch125, MATERIAL=Void
125, 0
*UEL PROPERTY, ELSET=EltPatch126, MATERIAL=Void
126, 1
*UEL PROPERTY, ELSET=EltPatch127, MATERIAL=Void
127, 0
*UEL PROPERTY, ELSET=EltPatch128, MATERIAL=Void
128, 1
*End Part
** Assembly
*Assembly, name=Assembly
*Instance, name=I1, part=Ariane
*End Instance
*End Assembly
** MATERIAL
*MATERIAL,NAME=Aluminium
*Elastic
70810.0, 0.33
*MATERIAL,NAME=Void
*Elastic
0.0, 0.0
**
*STEP,extrapolation=NO,NLGEOM=NO
*Static
** BOUNDARY CONDITIONS
** Name: DEP Type: Displacement/Rotation
*Boundary
I1.CPonTopEdgeP1, 1, 3, 0.
I1.CPonTopEdgeP2, 1, 3, 0.
I1.CPcurveP3, 1, 3, 0.
I1.CPcurveP4, 1, 3, 0.
I1.CPcurveP5, 1, 3, 0.
I1.CPcurveP6, 1, 3, 0.
I1.CPcurveP7, 1, 3, 0.
I1.CPcurveP8, 1, 3, 0.
I1.CPcurveP9, 1, 3, 0.
I1.CPcurveP10, 1, 3, 0.
I1.CPlgrgeP12, 2, 3, 0.
I1.CPlgrgeP14, 2, 3, 0.
I1.CPhullP15, 1, 3, 0.
I1.CPhullP16, 1, 3, 0.
I1.CPcurveP19, 1, 3, 0.
I1.CPcurveP20, 1, 3, 0.
I1.CPcurveP21, 1, 3, 0.
I1.CPcurveP22, 1, 3, 0.
I1.CPcurveP23, 1, 3, 0.
I1.CPcurveP24, 1, 3, 0.
I1.CPcurveP25, 1, 3, 0.
I1.CPcurveP26, 1, 3, 0.
I1.CPlgrgeP28, 2, 3, 0.
I1.CPlgrgeP30, 2, 3, 0.
I1.CPcurveP33, 1, 3, 0.
I1.CPcurveP34, 1, 3, 0.
I1.CPcurveP35, 1, 3, 0.
I1.CPcurveP36, 1, 3, 0.
I1.CPcurveP37, 1, 3, 0.
I1.CPcurveP38, 1, 3, 0.
I1.CPcurveP39, 1, 3, 0.
I1.CPcurveP40, 1, 3, 0.
I1.CPlgrgeP42, 2, 3, 0.
I1.CPlgrgeP44, 2, 3, 0.
I1.CPcurveP47, 1, 3, 0.
I1.CPcurveP48, 1, 3, 0.
I1.CPcurveP49, 1, 3, 0.
I1.CPcurveP50, 1, 3, 0.
I1.CPcurveP51, 1, 3, 0.
I1.CPcurveP52, 1, 3, 0.
I1.CPcurveP53, 1, 3, 0.
I1.CPcurveP54, 1, 3, 0.
I1.CPlgrgeP56, 2, 3, 0.
I1.CPlgrgeP58, 2, 3, 0.
I1.CPcurveP61, 1, 3, 0.
I1.CPcurveP62, 1, 3, 0.
I1.CPcurveP63, 1, 3, 0.
I1.CPcurveP64, 1, 3, 0.
I1.CPcurveP65, 1, 3, 0.
I1.CPcurveP66, 1, 3, 0.
I1.CPcurveP67, 1, 3, 0.
I1.CPcurveP68, 1, 3, 0.
I1.CPlgrgeP70, 2, 3, 0.
I1.CPlgrgeP72, 2, 3, 0.
I1.CPcurveP75, 1, 3, 0.
I1.CPcurveP76, 1, 3, 0.
I1.CPcurveP77, 1, 3, 0.
I1.CPcurveP78, 1, 3, 0.
I1.CPcurveP79, 1, 3, 0.
I1.CPcurveP80, 1, 3, 0.
I1.CPcurveP81, 1, 3, 0.
I1.CPcurveP82, 1, 3, 0.
I1.CPlgrgeP84, 2, 3, 0.
I1.CPlgrgeP86, 2, 3, 0.
I1.CPcurveP89, 1, 3, 0.
I1.CPcurveP90, 1, 3, 0.
I1.CPcurveP91, 1, 3, 0.
I1.CPcurveP92, 1, 3, 0.
I1.CPcurveP93, 1, 3, 0.
I1.CPcurveP94, 1, 3, 0.
I1.CPcurveP95, 1, 3, 0.
I1.CPcurveP96, 1, 3, 0.
I1.CPlgrgeP98, 2, 3, 0.
I1.CPlgrgeP100, 2, 3, 0.
I1.CPcurveP103, 1, 3, 0.
I1.CPcurveP104, 1, 3, 0.
I1.CPcurveP105, 1, 3, 0.
I1.CPcurveP106, 1, 3, 0.
I1.CPcurveP107, 1, 3, 0.
I1.CPcurveP108, 1, 3, 0.
I1.CPcurveP109, 1, 3, 0.
I1.CPcurveP110, 1, 3, 0.
I1.CPlgrgeP112, 2, 3, 0.
I1.CPlgrgeP114, 2, 3, 0.
I1.CPcurveP117, 1, 3, 0.
I1.CPcurveP118, 1, 3, 0.
I1.CPcurveP119, 1, 3, 0.
I1.CPcurveP120, 1, 3, 0.
I1.CPcurveP121, 1, 3, 0.
I1.CPcurveP122, 1, 3, 0.
I1.CPcurveP123, 1, 3, 0.
I1.CPcurveP124, 1, 3, 0.
I1.CPlgrgeP126, 2, 3, 0.
I1.CPlgrgeP128, 2, 3, 0.
*DLOAD
I1.EltPatch1, U60, 1
I1.EltPatch2, U60, 1
** Note : les 2 chargements ci-dessus ne seront pas utilisés
*node file, frequency=1
U,RF,CF
*el file, frequency=1
SDV
*End Step
